[TITLE]
;;Project Title/Notes

[OPTIONS]
;;Option             Value
FLOW_UNITS           LPS
INFILTRATION         HORTON
FLOW_ROUTING         DYNWAVE
START_DATE           04/11/2016
START_TIME           00:00:00
REPORT_START_DATE    04/11/2016
REPORT_START_TIME    00:00:00
END_DATE             04/16/2016
END_TIME             00:00:00
SWEEP_START          01/01
SWEEP_END            12/31
DRY_DAYS             0
REPORT_STEP          00:02:00
WET_STEP             00:00:15
DRY_STEP             00:15:00
ROUTING_STEP         0:00:20 
ALLOW_PONDING        YES
INERTIAL_DAMPING     PARTIAL
VARIABLE_STEP        0.75
LENGTHENING_STEP     1
MIN_SURFAREA         1.14
NORMAL_FLOW_LIMITED  BOTH
SKIP_STEADY_STATE    YES
FORCE_MAIN_EQUATION  D-W
LINK_OFFSETS         DEPTH
MIN_SLOPE            0

[EVAPORATION]
;;Data Source    Parameters
;;-------------- ----------------
MONTHLY          0.1    0.6    1.3    3.0    3.7    4.9    4.9    4.3    3.1    0.9    0.4    0.1   
DRY_ONLY         NO

[RAINGAGES]
;;Name           Format    Interval SCF      Source    
;;-------------- --------- ------ ------ ----------
rain_gauge       VOLUME    00:01    1.0      FILE       "Rain_full.dat"  RG         MM   

[SUBCATCHMENTS]
;;Name           Rain Gage        Outlet           Area     %Imperv  Width    %Slope   CurbLen  SnowPack        
;;-------------- ---------------- ---------------- -------- -------- -------- -------- -------- ----------------
A0005RT          rain_gauge       102a             0.07919  32       28.1412  61       0                        
A0010RT          rain_gauge       102c             0.14477  32       38.0482  90       0                        
A0015RT          rain_gauge       603              0.39542  32       62.8821  15       0                        
A0020RT          rain_gauge       603              0.37105  32       60.9142  8        0                        
A0025RT          rain_gauge       602              0.80382  32       89.6562  69       0                        
A0030RT          rain_gauge       605              0.92626  32       96.2425  5        0                        
A0035RT          rain_gauge       102d             0.11466  32       33.8609  96       0                        
A0040RT          rain_gauge       6_SBW            0.16359  32       40.4463  29       0                        
A0045RT          rain_gauge       102a             0.05273  32       22.9625  79       0                        
A0050RT          rain_gauge       10c              0.53744  27       73.3102  52       0                        
A0055T           rain_gauge       411              1.7901   0        133.7947 13       0                        
A0065RT          rain_gauge       13d              0.44036  27       66.3594  30       0                        
A0070RT          rain_gauge       12b              0.74122  27       86.0943  67       0                        
A0075RT          rain_gauge       11g              0.64356  27       80.222   53       0                        
A0080RT          rain_gauge       13               0.15228  27       39.0233  65       0                        
A0085RT          rain_gauge       13               0.05881  32       24.2509  4        0                        
A0090RT          rain_gauge       12               0.01696  32       13.0211  7        0                        
A0095RT          rain_gauge       608              0.29996  32       54.7687  41       0                        
A0100RT          rain_gauge       608              0.33702  32       58.0538  41       0                        
A0105RT          rain_gauge       601              0.35195  32       59.325   53       0                        
A0110RT          rain_gauge       601              0.08899  32       29.8311  40       0                        
A0115RT          rain_gauge       5h               0.5304   32       72.8288  62       0                        
A0120RT          rain_gauge       5h               0.51442  32       71.7234  82       0                        
A0125RT          rain_gauge       102k             0.14552  32       38.1473  83       0                        
A0130RT          rain_gauge       102d             0.05218  32       22.8434  104      0                        
A0135RT          rain_gauge       102e             0.2145   32       46.3142  70       0                        
A0140RT          rain_gauge       102e             0.03321  32       18.2221  52       0                        
A0145RT          rain_gauge       102f             0.51632  32       71.8556  80       0                        
A0150RT          rain_gauge       102g             0.0717   32       26.7765  84       0                        
A0155RT          rain_gauge       102g             0.07737  32       27.8156  86       0                        
A0160RT          rain_gauge       13               0.03993  32       19.9827  3        0                        
A0165RT          rain_gauge       13               0.26648  27       51.6219  42       0                        
B0005RT          rain_gauge       386              0.96529  32       98.249   4        0                        
B0010RT          rain_gauge       384              0.27066  32       52.0245  65       0                        
B0015RT          rain_gauge       382b             2.7833   32       166.8317 24       0                        
B0016RT          rain_gauge       381b             0.5522   0        74.3101  7        0                        
B0020RT          rain_gauge       381b             1.0188   0        100.9355 13       0                        
B0025RT          rain_gauge       145              0.51501  0        71.7639  16       0                        
B0030RT          rain_gauge       17b              0.49822  32       70.5845  63       0                        
B0035RT          rain_gauge       17               0.37545  0        61.274   3        0                        
B0040RT          rain_gauge       146              0.39176  27       62.591   33       0                        
B0045RT          rain_gauge       145              0.16549  27       40.6811  39       0                        
B0050RT          rain_gauge       147              0.18175  27       42.6325  62       0                        
B0055RT          rain_gauge       147              0.01522  32       12.3372  61       0                        
B0060RT          rain_gauge       144              0.90662  27       95.2168  64       0                        
B0065RT          rain_gauge       148              0.11454  27       33.8438  61       0                        
B0066RT          rain_gauge       148              0.07473  0        27.3371  41       0                        
B0070RT          rain_gauge       14               0.10458  27       32.3392  26       0                        
B0075RT          rain_gauge       149              0.1251   32       35.3695  90       0                        
B0080RT          rain_gauge       149              0.10066  32       31.7267  74       0                        
B0085RT          rain_gauge       149              0.07164  32       26.7657  48       0                        
B0090RT          rain_gauge       149              0.22288  32       47.2106  73       0                        
B0095RT          rain_gauge       14b              0.7942   32       89.118   70       0                        
B0100RT          rain_gauge       18               0.30611  32       55.3273  51       0                        
B0105RT          rain_gauge       17               0.31734  32       56.3326  25       0                        
B0110RT          rain_gauge       386              0.29691  32       54.4899  22       0                        
B0115RT          rain_gauge       156SW            0.09038  32       30.0639  50       0                        
B0120RT          rain_gauge       22a              0.16355  32       40.4419  67       0                        
B0125RT          rain_gauge       22a              0.18757  45       43.3094  45       0                        
B0126RT          rain_gauge       22a              0.06732  0        25.9459  58       0                        
B0130RT          rain_gauge       22a              0.1744   45       41.7608  23       0                        
B0135RT          rain_gauge       23               0.57269  45       75.6764  34       0                        
B0140RT          rain_gauge       14               0.279    32       52.82    46       0                        
B0145RT          rain_gauge       8a               0.30872  32       55.5622  15       0                        
B0146RT          rain_gauge       9                0.16388  0        40.4821  4        0                        
B0150RT          rain_gauge       385              0.49085  32       70.061   24       0                        
B0155RT          rain_gauge       386              0.34503  32       58.7394  17       0                        
B0160RT          rain_gauge       387              0.4746   32       68.891   9        0                        
B0161RT          rain_gauge       389              0.71081  0        84.3093  3        0                        
B0165RT          rain_gauge       VS_22            0.20371  32       45.1345  4        0                        
B0170RT          rain_gauge       9                0.12752  32       35.7101  4        0                        
B0175RT          rain_gauge       9                0.15919  32       39.8986  5        0                        
B0180RT          rain_gauge       15a              0.38505  32       62.0528  51       0                        
B0181RT          rain_gauge       15a              0.19575  0        44.2437  70       0                        
B0182RT          rain_gauge       15               0.28639  0        53.5153  51       0                        
B0185RT          rain_gauge       VS_22            0.0701   32       26.4756  91       0                        
B0186RT          rain_gauge       VS_22            0.03697  0        19.2285  80       0                        
B0190RT          rain_gauge       VS_22            0.10757  45       32.798   57       0                        
B0195RT          rain_gauge       VS_22            0.01867  45       13.6649  13       0                        
B0200RT          rain_gauge       VS_22            0.07081  45       26.6107  46       0                        
B0205RT          rain_gauge       9                0.09302  45       30.4991  69       0                        
B0210RT          rain_gauge       150              0.11976  32       34.6062  34       0                        
B0215RT          rain_gauge       22a              0.12965  45       36.0071  37       0                        
B0220RT          rain_gauge       150b             0.32922  45       57.3779  29       0                        
B0225RT          rain_gauge       23               0.19073  32       43.6721  24       0                        
B0226RT          rain_gauge       23               0.10214  0        31.96    54       0                        
B0227RT          rain_gauge       23               0.09451  0        30.7422  4        0                        
B0230RT          rain_gauge       374              0.64827  32       80.5155  23       0                        
B0235RT          rain_gauge       124a             0.1362   32       36.9058  6        0                        
B0240T           rain_gauge       124              0.66223  0        81.3773  37       0                        
B0245RT          rain_gauge       124              0.32866  32       57.3289  12       0                        
B0250T           rain_gauge       122              0.42931  0        65.522   24       0                        
B0255RT          rain_gauge       104a             0.13244  32       36.3921  90       0                        
B0260RT          rain_gauge       104b             0.25879  32       50.8711  80       0                        
B0265RT          rain_gauge       104e             0.31353  32       55.9936  78       0                        
B0270T           rain_gauge       104e             0.1338   0        36.5787  86       0                        
B0275T           rain_gauge       102i             0.46037  0        67.8506  73       0                        
B0280RT          rain_gauge       122              0.30489  32       55.2169  43       0                        
B0285T           rain_gauge       121              0.54502  0        73.8257  8        0                        
B0290RT          rain_gauge       121              0.32961  32       57.4114  15       0                        
B0295RT          rain_gauge       153              0.01395  45       11.8092  4        0                        
B0300RT          rain_gauge       150b             0.35396  45       59.4947  60       0                        
B0305RT          rain_gauge       106              0.29178  45       54.017   31       0                        
B0310RT          rain_gauge       153              0.21886  32       46.783   6        0                        
B0315RT          rain_gauge       156SW            0.3949   45       62.8412  5        0                        
B0320RT          rain_gauge       156SW            0.14086  32       37.531   5        0                        
B0325RT          rain_gauge       125_SBW          0.05402  32       23.2417  5        0                        
B0330RT          rain_gauge       8                0.47587  32       68.9831  6        0                        
B0335RT          rain_gauge       105              0.42522  32       65.2093  4        0                        
B0340RT          rain_gauge       150              0.53867  32       73.3938  4        0                        
B0345RT          rain_gauge       106              0.15027  45       38.7644  3        0                        
B0350RT          rain_gauge       104d             0.16603  32       40.7471  2        0                        
B0355RT          rain_gauge       104c             0.66809  32       81.7367  3        0                        
B0360RT          rain_gauge       7a               0.95043  32       97.4899  17       0                        
B0365RT          rain_gauge       14b              0.50249  32       70.8868  4        0                        
B0370RT          rain_gauge       14a              0.41378  32       64.326   2        0                        
B0375RT          rain_gauge       6b               0.40362  32       63.5312  2        0                        
B0380RT          rain_gauge       6a               0.49346  32       70.2466  3        0                        
B0385T           rain_gauge       161a             0.07539  0        27.4564  3        0                        
B0390RT          rain_gauge       128a_Blindsch.   0.53998  32       73.4831  4        0                        
B0395T           rain_gauge       128a_Blindsch.   0.51292  0        71.6185  14       0                        
B0400T           rain_gauge       126_SBW          0.3655   0        60.4568  7        0                        
B0405RT          rain_gauge       106              0.01075  32       10.3657  4        0                        
B0410T           rain_gauge       106              0.0496   0        22.2717  79       0                        
B0415RT          rain_gauge       156SW            0.41185  32       64.1755  6        0                        
B0420T           rain_gauge       124a             0.15866  0        39.8322  23       0                        
B0425T           rain_gauge       112              1.0485   0        102.3953 38       0                        
B0430T           rain_gauge       114              0.83082  0        91.1491  26       0                        
B0435T           rain_gauge       127.2            1.342    0        115.8452 19       0                        
B0440RT          rain_gauge       14               0.22105  32       47.0157  15       0                        
B0445T           rain_gauge       127dSW           11.3875  0        337.4539 3        0                        
B0460R           rain_gauge       103b             0.1338   45       36.5787  2        0                        
B0465R           rain_gauge       103b             0.46037  45       67.8506  56       0                        
B0470R           rain_gauge       103c             0.54502  45       73.8257  59       0                        
B0475R           rain_gauge       138_SBW_Entlastung 0.07539  45       27.4564  18       0                        
B0480R           rain_gauge       449b             0.51292  32       71.6185  8        0                        
B0490R           rain_gauge       103b             0.0496   45       22.2717  4        0                        
B0510R           rain_gauge       127.3            1.342    45       115.8452 46       0                        
B0515R           rain_gauge       127e_RW          11.3875  4        337.4539 89       0                        
B0520RT          rain_gauge       18               0.61295  32       78.2913  26       0                        
C0005T           rain_gauge       48a_SBW          0.06422  0        25.3419  64       0                        
C0010RT          rain_gauge       42               0.60735  32       77.9329  11       0                        
C0015RT          rain_gauge       448a             0.36605  32       60.5021  44       0                        
C0020RT          rain_gauge       38               0.6102   45       78.1153  9        0                        
C0025T           rain_gauge       163              0.71349  0        84.4682  48       0                        
C0030T           rain_gauge       446              0.93696  0        96.7966  37       0                        
C0035T           rain_gauge       40               0.06331  0        25.1617  6        0                        
C0036T           rain_gauge       40               0.27161  0        52.1163  6        0                        
C0040RT          rain_gauge       40               0.16742  45       40.9172  31       0                        
C0045RT          rain_gauge       448a             0.32126  32       56.6798  80       0                        
C0050RT          rain_gauge       40b              0.23717  45       48.7004  36       0                        
C0055RT          rain_gauge       40b              0.52488  45       72.4489  64       0                        
C0060RT          rain_gauge       1102             0.41354  32       64.307   30       0                        
C0065RT          rain_gauge       1100             0.10782  0        32.8355  48       0                        
C0066RT          rain_gauge       36               0.17675  0        42.0412  62       0                        
C0070RT          rain_gauge       36               0.28677  45       53.5511  54       0                        
C0075RT          rain_gauge       35a              0.23795  32       48.7798  36       0                        
C0080RT          rain_gauge       40               0.22665  45       47.6074  37       0                        
C0081RT          rain_gauge       40               0.21735  0        46.6212  73       0                        
C0085RT          rain_gauge       39               0.37043  45       60.8628  10       0                        
C0090T           rain_gauge       142SW            0.64992  0        80.6175  69       0                        
C0091T           rain_gauge       135MW            0.16682  0        40.844   4        0                        
C0095T           rain_gauge       137              0.66734  0        81.6911  211      0                        
C0100T           rain_gauge       136MW            0.03752  0        19.3702  52       0                        
C0101T           rain_gauge       136MW            0.03038  0        17.43    75       0                        
C0110T           rain_gauge       134a_SW          0.3449   0        58.7283  9        0                        
C0111T           rain_gauge       37               0.1447   0        38.0393  13       0                        
C0112T           rain_gauge       37               0.13497  0        36.7384  19       0                        
C0115T           rain_gauge       159c             0.03194  0        17.8715  4        0                        
C0120RT          rain_gauge       34               0.54353  32       73.7245  8        0                        
C0125RT          rain_gauge       35a              0.53811  32       73.356   5        0                        
C0130RT          rain_gauge       35a              0.01025  32       10.1234  23       0                        
C0135RT          rain_gauge       285              0.43772  26       66.1603  55       0                        
C0140RT          rain_gauge       284a             1.107    26       105.214  29       0                        
C0145RT          rain_gauge       285              0.53905  26       73.4197  57       0                        
C0150RT          rain_gauge       376a             0.89638  32       94.6771  58       0                        
C0155RT          rain_gauge       377a             0.06542  32       25.5774  77       0                        
C0160RT          rain_gauge       211              0.18614  45       43.1443  6        0                        
C0165RT          rain_gauge       210              0.28809  45       53.6742  68       0                        
C0170RT          rain_gauge       208              0.43085  45       65.6389  66       0                        
C0175RT          rain_gauge       207              0.14251  45       37.7501  15       0                        
C0180RT          rain_gauge       207b             0.12482  45       35.3304  17       0                        
C0185RT          rain_gauge       377              0.13816  32       37.1695  52       0                        
C0190RT          rain_gauge       381b             0.13754  0        37.0869  12       0                        
C0195T           rain_gauge       159c             0.20425  0        45.1939  65       0                        
C0200RT          rain_gauge       37a              0.38735  32       62.2374  57       0                        
C0205RT          rain_gauge       27b              0.52494  32       72.4528  75       0                        
C0210RT          rain_gauge       27b              0.19238  32       43.8608  24       0                        
C0215RT          rain_gauge       287              0.27522  32       52.4612  75       0                        
C0220RT          rain_gauge       36               0.17931  32       42.3445  117      0                        
C0225RT          rain_gauge       28c              0.18827  32       43.3899  54       0                        
C0230RT          rain_gauge       28c              0.11525  45       33.9491  52       0                        
C0235RT          rain_gauge       28b              0.24102  32       49.0942  52       0                        
C0236RT          rain_gauge       28c              0.10786  0        32.8425  56       0                        
C0237RT          rain_gauge       28c              0.05952  0        24.3972  54       0                        
C0240RT          rain_gauge       377              0.03733  45       19.3205  63       0                        
C0245RT          rain_gauge       378              0.24531  32       49.5288  3        0                        
C0250RT          rain_gauge       377              0.2085   45       45.6614  62       0                        
C0255RT          rain_gauge       379              0.0949   45       30.8055  66       0                        
C0260RT          rain_gauge       37               0.32839  45       57.305   61       0                        
C0265RT          rain_gauge       37a              0.14178  45       37.6538  75       0                        
C0270RT          rain_gauge       VS_22            0.01314  45       11.4618  3        0                        
C0275RT          rain_gauge       37a              0.01342  45       11.5844  98       0                        
C0280RT          rain_gauge       38b              0.47194  45       68.6979  64       0                        
C0281RT          rain_gauge       40               0.53684  0        73.2691  14       0                        
C0285RT          rain_gauge       28c              0.2247   45       47.4028  19       0                        
C0290RT          rain_gauge       28               0.34894  32       59.0709  96       0                        
C0295RT          rain_gauge       284a             1.2281   26       110.819  7        0                        
C0300T           rain_gauge       161              0.06063  0        24.6229  34       0                        
C0305T           rain_gauge       161              0.26813  0        51.7816  90       0                        
C0310T           rain_gauge       163              1.322    0        114.9789 51       0                        
C0315T           rain_gauge       206b             0.97136  0        98.5575  17       0                        
C0320RT          rain_gauge       35a              0.18556  32       43.0763  37       0                        
C0325RT          rain_gauge       40               0.03572  32       18.9009  67       0                        
C0330T           rain_gauge       448              2.1873   0        147.8936 7        0                        
C0335T           rain_gauge       165              1.0853   0        104.1787 15       0                        
C0336T           rain_gauge       47               0.69464  0        83.3448  57       0                        
C0337T           rain_gauge       448c             0.68238  0        82.6062  14       0                        
C0340T           rain_gauge       47               0.27496  0        52.4368  68       0                        
C0345T           rain_gauge       166              0.89424  0        94.564   137      0                        
C0350T           rain_gauge       160MW            0.15339  0        39.1645  39       0                        
C0351T           rain_gauge       160MW            0.08471  0        29.1053  111      0                        
C0355T           rain_gauge       134c_SW          0.15618  0        39.5197  57       0                        
C0360T           rain_gauge       142aSW           0.27141  0        52.097   3        0                        
C0365R           rain_gauge       159RW            0.2043   45       45.2     3        0                        
C0370T           rain_gauge       159MW            0.29545  0        54.3552  22       0                        
C0385R           rain_gauge       451a             0.38077  45       61.7068  58       0                        
C0390R           rain_gauge       451c             0.06331  32       25.1617  10       0                        
C0395R           rain_gauge       141b             0.68494  45       82.7611  9        0                        
C0400R           rain_gauge       449              0.66734  45       81.6911  38       0                        
C0405R           rain_gauge       160RW            0.0679   45       26.0577  14       0                        
C0410R           rain_gauge       134b_RW          0.3449   45       58.7283  10       0                        
C0415R           rain_gauge       159RW            0.03194  32       17.8715  3        0                        
C0425R           rain_gauge       161a             0.26813  45       51.7816  42       0                        
C0440T           rain_gauge       446a             0.26069  0        51.0575  17       0                        
C0441T           rain_gauge       446a             0.11617  0        34.0844  59       0                        
C0442T           rain_gauge       135MW            0.03557  0        18.8586  38       0                        
C0445R           rain_gauge       159RW            0.29103  32       53.9474  80       0                        
C0450R           rain_gauge       451c             0.1478   32       38.4448  63       0                        
C0455R           rain_gauge       451c             0.33703  32       58.0539  4        0                        
C0460R           rain_gauge       454a             0.39508  32       62.8557  4        0                        
C0465R           rain_gauge       453              0.3939   32       62.7616  50       0                        
C0470R           rain_gauge       454b             0.41526  32       64.4409  3        0                        
C0475R           rain_gauge       455              0.59524  32       77.1516  3        0                        
C0490R           rain_gauge       455              0.68229  32       82.6009  3        0                        
C0495R           rain_gauge       456              0.28307  32       53.2043  3        0                        
C0500R           rain_gauge       458              1.0066   32       100.3318 2        0                        
C0505R           rain_gauge       40h              0.64589  32       80.3671  3        0                        
C0510R           rain_gauge       159RW            0.02099  32       14.4871  2        0                        
C0520R           rain_gauge       159RW            0.02598  32       16.1169  1        0                        